# generated using pymatgen
data_H10C6O5
_symmetry_space_group_name_H-M   'P 1'
_cell_length_a   6.74748725
_cell_length_b   8.14451453
_cell_length_c   10.49178793
_cell_angle_alpha   90.00214572
_cell_angle_beta   90.00083977
_cell_angle_gamma   96.88413802
_symmetry_Int_Tables_number   1
_chemical_formula_structural   H10C6O5
_chemical_formula_sum   'H40 C24 O20'
_cell_volume   572.41949808
_cell_formula_units_Z   4
loop_
 _symmetry_equiv_pos_site_id
 _symmetry_equiv_pos_as_xyz
  1  'x, y, z'
loop_
 _atom_site_type_symbol
 _atom_site_label
 _atom_site_symmetry_multiplicity
 _atom_site_fract_x
 _atom_site_fract_y
 _atom_site_fract_z
 _atom_site_occupancy
  C  C1  1  0.584359  0.627933  0.778222  1
  C  C2  1  0.495337  0.500744  0.874925  1
  C  C3  1  0.616104  0.840600  0.952261  1
  C  C4  1  0.585147  0.538713  0.005634  1
  C  C5  1  0.529285  0.707307  0.046220  1
  C  C6  1  0.535339  0.006616  0.963268  1
  C  C7  1  0.504426  0.732615  0.278224  1
  C  C8  1  0.593435  0.859805  0.374942  1
  C  C9  1  0.472631  0.519952  0.452245  1
  C  C10  1  0.503564  0.821822  0.505632  1
  C  C11  1  0.559457  0.653239  0.546220  1
  C  C12  1  0.553324  0.353908  0.463254  1
  C  C13  1  0.078113  0.141276  0.056238  1
  C  C14  1  0.033735  0.999849  0.151708  1
  C  C15  1  0.065006  0.348716  0.224263  1
  C  C16  1  0.112809  0.057316  0.281229  1
  C  C17  1  0.016203  0.209585  0.322262  1
  C  C18  1  0.963252  0.503668  0.244634  1
  C  C19  1  0.010617  0.219209  0.556243  1
  C  C20  1  0.054987  0.360645  0.651715  1
  C  C21  1  0.023703  0.011774  0.724250  1
  C  C22  1  0.975964  0.303191  0.781244  1
  C  C23  1  0.072526  0.150899  0.822259  1
  C  C24  1  0.125406  0.856798  0.744628  1
  H  H25  1  0.741293  0.617898  0.758141  1
  H  H26  1  0.334647  0.508277  0.880122  1
  H  H27  1  0.777676  0.854297  0.960124  1
  H  H28  1  0.516968  0.328797  0.742087  1
  H  H29  1  0.747945  0.542057  0.003093  1
  H  H30  1  0.367321  0.702563  0.054661  1
  H  H31  1  0.373666  0.985837  0.951059  1
  H  H32  1  0.600030  0.085395  0.886522  1
  H  H33  1  0.522209  0.447676  0.179554  1
  H  H34  1  0.579325  0.207181  0.073346  1
  H  H35  1  0.347482  0.742632  0.258153  1
  H  H36  1  0.754122  0.852255  0.380166  1
  H  H37  1  0.311052  0.506295  0.460075  1
  H  H38  1  0.571797  0.031746  0.242109  1
  H  H39  1  0.340763  0.818432  0.503047  1
  H  H40  1  0.721423  0.657991  0.554652  1
  H  H41  1  0.715001  0.374637  0.451057  1
  H  H42  1  0.488609  0.275145  0.386500  1
  H  H43  1  0.566412  0.912870  0.679566  1
  H  H44  1  0.509292  0.153357  0.573330  1
  H  H45  1  0.238088  0.178067  0.043637  1
  H  H46  1  0.872622  0.966830  0.156021  1
  H  H47  1  0.226519  0.380737  0.218675  1
  H  H48  1  0.092712  0.832717  0.022379  1
  H  H49  1  0.274389  0.089999  0.277213  1
  H  H50  1  0.854837  0.179170  0.333649  1
  H  H51  1  0.803005  0.469360  0.251771  1
  H  H52  1  0.994524  0.586026  0.162949  1
  H  H53  1  0.096352  0.963170  0.458583  1
  H  H54  1  0.039215  0.711443  0.345880  1
  H  H55  1  0.850641  0.182407  0.543643  1
  H  H56  1  0.216097  0.393697  0.656011  1
  H  H57  1  0.862186  0.979781  0.718641  1
  H  H58  1  0.995931  0.527755  0.522401  1
  H  H59  1  0.814375  0.270552  0.777258  1
  H  H60  1  0.233895  0.181291  0.833650  1
  H  H61  1  0.285655  0.891069  0.751796  1
  H  H62  1  0.094140  0.774446  0.662933  1
  H  H63  1  0.992470  0.397358  0.958597  1
  H  H64  1  0.049457  0.649036  0.845878  1
  O  O65  1  0.466172  0.603038  0.667372  1
  O  O66  1  0.560506  0.794257  0.821104  1
  O  O67  1  0.529650  0.337393  0.836311  1
  O  O68  1  0.501885  0.407831  0.091018  1
  O  O69  1  0.622595  0.757512  0.167373  1
  O  O70  1  0.584555  0.087161  0.083498  1
  O  O71  1  0.528312  0.566296  0.321103  1
  O  O72  1  0.559169  0.023166  0.336334  1
  O  O73  1  0.586713  0.952725  0.591035  1
  O  O74  1  0.504056  0.273379  0.583476  1
  O  O75  1  0.983445  0.089118  0.941792  1
  O  O76  1  0.988361  0.286794  0.100473  1
  O  O77  1  0.129551  0.858693  0.112183  1
  O  O78  1  0.070301  0.921742  0.370710  1
  O  O79  1  0.105270  0.271375  0.441800  1
  O  O80  1  0.035719  0.590930  0.359168  1
  O  O81  1  0.100390  0.073695  0.600472  1
  O  O82  1  0.959107  0.501770  0.612203  1
  O  O83  1  0.018577  0.438768  0.870727  1
  O  O84  1  0.052866  0.769548  0.859144  1
 
# Number_of_atoms:                    84
# Number_of_atom_types:                3
# Atom_types:                         C  H  O
# Atom_numbers:                       24    40    20
# Material_class:                    MC_pol
# Geometry_class:                    GC_cry
# Source:                            Zhu_etal:J.Chem.Phys.141.154102(2014)                                           
# Class:                             common_polymer_crystal                                                          
# Label:                             cellulose                                                                       
# Structure_prediction_method_used:  NA                                                                              
# Number_of_atoms:                    84
# Number_of_atom_types:                3
# Atom_types:                         C  H  O
# Dielectric_constant_electronic:    2.84888E+00
# Dielectric_constant_ionic:         9.33221E-01
# Dielectric_constant_total:         3.78210E+00
# Band_gap_at_the_GGA_level_(eV):    5.61940E+00
# Band_gap_at_the_HSE06_level_(eV):  7.47570E+00
# Atomization_energy_(eV/atom):     -5.47556E+00
# Volume_of_the_unit_cell_(A^3):     5.72419E+02
# Simulation_tool:                   VASP-5.X
# Pseudopotential:                   PAW
# Simulation_conditions:             ENCUT=400eV,k-spacing_relax=0.25/Angstrom,k-spacing_bandgap=0.20/Angstrom
# File_description:                  Structural information in CIF format
# Note:                              N/A 
# Created_by:                        Huan Tran (huan.tran@uconn.edu)
